# generated using pymatgen
data_YbSb3
_symmetry_space_group_name_H-M   'P 1'
_cell_length_a   6.26448774
_cell_length_b   6.26448774
_cell_length_c   6.26448774
_cell_angle_alpha   137.72717244
_cell_angle_beta   137.72717244
_cell_angle_gamma   61.32110452
_symmetry_Int_Tables_number   1
_chemical_formula_structural   YbSb3
_chemical_formula_sum   'Yb1 Sb3'
_cell_volume   109.98778945
_cell_formula_units_Z   1
loop_
 _symmetry_equiv_pos_site_id
 _symmetry_equiv_pos_as_xyz
  1  'x, y, z'
loop_
 _atom_site_type_symbol
 _atom_site_label
 _atom_site_symmetry_multiplicity
 _atom_site_fract_x
 _atom_site_fract_y
 _atom_site_fract_z
 _atom_site_occupancy
  Sb  Sb0  1  0.75000035  0.25000024  0.50000010  1
  Sb  Sb1  1  0.25000024  0.75000035  0.50000010  1
  Sb  Sb2  1  0.49999956  0.49999956  0.00000000  1
  Yb  Yb3  1  0.00000000  0.00000000  0.00000000  1
