# generated using pymatgen
data_Cs3Br2Cl
_symmetry_space_group_name_H-M   'P 1'
_cell_length_a   5.11903181
_cell_length_b   5.11903181
_cell_length_c   12.64998397
_cell_angle_alpha   90.00000000
_cell_angle_beta   90.00000000
_cell_angle_gamma   120.00000000
_symmetry_Int_Tables_number   1
_chemical_formula_structural   Cs3Br2Cl
_chemical_formula_sum   'Cs3 Br2 Cl1'
_cell_volume   287.07558857
_cell_formula_units_Z   1
loop_
 _symmetry_equiv_pos_site_id
 _symmetry_equiv_pos_as_xyz
  1  'x, y, z'
loop_
 _atom_site_type_symbol
 _atom_site_label
 _atom_site_symmetry_multiplicity
 _atom_site_fract_x
 _atom_site_fract_y
 _atom_site_fract_z
 _atom_site_occupancy
  Br  Br0  1  0.33333333  0.66666667  0.17010298  1
  Br  Br1  1  0.66666667  0.33333333  0.82989702  1
  Cl  Cl2  1  0.00000000  0.00000000  0.50000000  1
  Cs  Cs3  1  0.00000000  0.00000000  0.00000000  1
  Cs  Cs4  1  0.66666667  0.33333333  0.34199332  1
  Cs  Cs5  1  0.33333333  0.66666667  0.65800668  1
